******
** ngspice-34 : Circuit level simulation program
** The U. C. Berkeley CAD Group
** Copyright 1985-1994, Regents of the University of California.
** Copyright 2001-2020, The ngspice team.
** Please get your ngspice manual from http://ngspice.sourceforge.net/docs.html
** Please file your bug-reports at http://ngspice.sourceforge.net/bugrep.html
** Creation Date: Jan 29 2021   17:14:23
******

No compatibility mode selected!


Circuit: 19d070070 | mayur ware

Doing analysis at TEMP = 27.000000 and TNOM = 27.000000


No. of Data Rows : 21
                             19d070070 | mayur ware
                             DC transfer characteristic  Sat Aug  7 14:57:36  2021
--------------------------------------------------------------------------------
Index   v-sweep         v(out)          
--------------------------------------------------------------------------------
0	1.500000e+01	9.000000e+00	
1	1.550000e+01	9.300000e+00	
2	1.600000e+01	9.600000e+00	
3	1.650000e+01	9.900000e+00	
4	1.700000e+01	1.020000e+01	
5	1.750000e+01	1.050000e+01	
6	1.800000e+01	1.080000e+01	
7	1.850000e+01	1.110000e+01	
8	1.900000e+01	1.140000e+01	
9	1.950000e+01	1.169947e+01	
10	2.000000e+01	1.193305e+01	
11	2.050000e+01	1.203215e+01	
12	2.100000e+01	1.210149e+01	
13	2.150000e+01	1.216193e+01	
14	2.200000e+01	1.221841e+01	
15	2.250000e+01	1.227218e+01	
16	2.300000e+01	1.232443e+01	
17	2.350000e+01	1.237566e+01	
18	2.400000e+01	1.242609e+01	
19	2.450000e+01	1.247591e+01	
20	2.500000e+01	1.252524e+01	
                             19d070070 | mayur ware
                             DC transfer characteristic  Sat Aug  7 14:57:36  2021
--------------------------------------------------------------------------------
Index   v-sweep         i(v1)           
--------------------------------------------------------------------------------
0	1.500000e+01	1.276596e-02	
1	1.550000e+01	1.319149e-02	
2	1.600000e+01	1.361702e-02	
3	1.650000e+01	1.404255e-02	
4	1.700000e+01	1.446809e-02	
5	1.750000e+01	1.489362e-02	
6	1.800000e+01	1.531915e-02	
7	1.850000e+01	1.574468e-02	
8	1.900000e+01	1.617021e-02	
9	1.950000e+01	1.659687e-02	
10	2.000000e+01	1.716372e-02	
11	2.050000e+01	1.801670e-02	
12	2.100000e+01	1.893300e-02	
13	2.150000e+01	1.986823e-02	
14	2.200000e+01	2.081190e-02	
15	2.250000e+01	2.176133e-02	
16	2.300000e+01	2.271397e-02	
17	2.350000e+01	2.366881e-02	
18	2.400000e+01	2.462534e-02	
19	2.450000e+01	2.558318e-02	
20	2.500000e+01	2.654205e-02	
                             19d070070 | mayur ware
                             DC transfer characteristic  Sat Aug  7 14:57:36  2021
--------------------------------------------------------------------------------
Index   v-sweep         i(v2)           
--------------------------------------------------------------------------------
0	1.500000e+01	3.469451e-11	
1	1.550000e+01	3.529451e-11	
2	1.600000e+01	3.589451e-11	
3	1.650000e+01	3.649451e-11	
4	1.700000e+01	3.709451e-11	
5	1.750000e+01	3.769454e-11	
6	1.800000e+01	3.830000e-11	
7	1.850000e+01	4.274470e-11	
8	1.900000e+01	2.739623e-09	
9	1.950000e+01	1.868053e-06	
10	2.000000e+01	2.374033e-04	
11	2.050000e+01	9.498167e-04	
12	2.100000e+01	1.767759e-03	
13	2.150000e+01	2.617256e-03	
14	2.200000e+01	3.480819e-03	
15	2.250000e+01	4.353988e-03	
16	2.300000e+01	5.232503e-03	
17	2.350000e+01	6.114689e-03	
18	2.400000e+01	6.999685e-03	
19	2.450000e+01	7.886856e-03	
20	2.500000e+01	8.775750e-03	
                             19d070070 | mayur ware
                             DC transfer characteristic  Sat Aug  7 14:57:36  2021
--------------------------------------------------------------------------------
Index   v-sweep         i(v3)           
--------------------------------------------------------------------------------
0	1.500000e+01	1.276596e-02	
1	1.550000e+01	1.319149e-02	
2	1.600000e+01	1.361702e-02	
3	1.650000e+01	1.404255e-02	
4	1.700000e+01	1.446809e-02	
5	1.750000e+01	1.489362e-02	
6	1.800000e+01	1.531915e-02	
7	1.850000e+01	1.574468e-02	
8	1.900000e+01	1.617021e-02	
9	1.950000e+01	1.659500e-02	
10	2.000000e+01	1.692632e-02	
11	2.050000e+01	1.706688e-02	
12	2.100000e+01	1.716524e-02	
13	2.150000e+01	1.725097e-02	
14	2.200000e+01	1.733108e-02	
15	2.250000e+01	1.740734e-02	
16	2.300000e+01	1.748147e-02	
17	2.350000e+01	1.755412e-02	
18	2.400000e+01	1.762566e-02	
19	2.450000e+01	1.769632e-02	
20	2.500000e+01	1.776630e-02	
ngspice 1 -> ngspice-34 done
