******
** ngspice-34 : Circuit level simulation program
** The U. C. Berkeley CAD Group
** Copyright 1985-1994, Regents of the University of California.
** Copyright 2001-2020, The ngspice team.
** Please get your ngspice manual from http://ngspice.sourceforge.net/docs.html
** Please file your bug-reports at http://ngspice.sourceforge.net/bugrep.html
** Creation Date: Jan 29 2021   17:14:23
******

No compatibility mode selected!


Circuit: 19d070070 | mayur ware

Doing analysis at TEMP = 27.000000 and TNOM = 27.000000

Warning: 1n914: junction potential VJ too large, limited to 2.000000
Warning: 1n914: junction potential VJ too large, limited to 2.000000
Warning: 1n914: junction potential VJ too large, limited to 2.000000
Warning: 1n914: junction potential VJ too large, limited to 2.000000
Warning: v: no DC value, transient time 0 value used

Initial Transient Solution
--------------------------

Node                                   Voltage
----                                   -------
3                                  6.66581e-19
out                                 3.4802e-22
1                                  6.66581e-19
4                                  6.66581e-19
2                                  6.66581e-19
v#branch                          -3.40728e-34
v2#branch                           3.4802e-25
v1#branch                           3.4802e-25


No. of Data Rows : 1020
ngspice 1 -> ngspice-34 done
